
#######################################################################
#
#                 Cambridge Crystallographic Data Centre
#                                CCDC 
#
#######################################################################
#
# If this CIF has been generated from an entry in the Cambridge 
# Structural Database, then it will include bibliographic, chemical, 
# crystal, experimental, refinement or atomic coordinate data resulting 
# from the CCDC's data processing and validation procedures.
#
#######################################################################

data_DAXNIC
_chemical_name_common            'AlFFIVE-1-Ni (KAUST-8) rehydrated'
_chemical_formula_moiety         '(C8 H10 Al1 F5 N4 Ni1 O1)n'
_chemical_name_systematic        
'catena-[bis(\m-pyrazine)-bis(\m-fluoro)-aqua-trifluoro-aluminium-nickel unknown solvate]'
_symmetry_cell_setting           tetragonal
_symmetry_space_group_name_H-M   'I 4/m c m'
_symmetry_Int_Tables_number      140
_space_group_name_Hall           '-I 4 2c'
loop_
_symmetry_equiv_pos_site_id
_symmetry_equiv_pos_as_xyz
1 x,y,z
2 -x,-y,z
3 -y,x,z
4 y,-x,z
5 -x,y,1/2-z
6 x,-y,1/2-z
7 y,x,1/2-z
8 -y,-x,1/2-z
9 1/2+x,1/2+y,1/2+z
10 1/2-x,1/2-y,1/2+z
11 1/2-y,1/2+x,1/2+z
12 1/2+y,1/2-x,1/2+z
13 1/2-x,1/2+y,-z
14 1/2+x,1/2-y,-z
15 1/2+y,1/2+x,-z
16 1/2-y,1/2-x,-z
17 -x,-y,-z
18 x,y,-z
19 y,-x,-z
20 -y,x,-z
21 x,-y,1/2+z
22 -x,y,1/2+z
23 -y,-x,1/2+z
24 y,x,1/2+z
25 1/2-x,1/2-y,1/2-z
26 1/2+x,1/2+y,1/2-z
27 1/2+y,1/2-x,1/2-z
28 1/2-y,1/2+x,1/2-z
29 1/2+x,1/2-y,z
30 1/2-x,1/2+y,z
31 1/2-y,1/2-x,z
32 1/2+y,1/2+x,z
_cell_length_a                   9.9385(5)
_cell_length_b                   9.9385(5)
_cell_length_c                   15.4136(9)
_cell_angle_alpha                90
_cell_angle_beta                 90
_cell_angle_gamma                90
_cell_volume                     1522.46
_exptl_crystal_colour            'blue violet'
_exptl_crystal_description       'square prism'
_cell_formula_units_Z            4
loop_
_atom_site_label
_atom_site_type_symbol
_atom_site_fract_x
_atom_site_fract_y
_atom_site_fract_z
Ni1 Ni 0.0000 0.0000 0.5000
N1 N -0.15031(19) 0.15031(19) 0.5000
C1 C -0.1782(8) 0.2222(7) 0.4298(5)
H1 H -0.1291 0.2069 0.3794
F1 F 0.0000 0.0000 0.63062(17)
Al1 Al 0.0000 0.0000 0.7500
F2 F -0.1742(7) 0.0000 0.7500
O1 O -0.1213(6) -0.1213(6) 0.7500
C2 C -0.1782(8) 0.2222(7) 0.5702(5)
H2 H -0.1291 0.2069 0.6206
N2 N -0.34969(19) 0.34969(19) 0.5000
C3 C -0.2778(7) 0.3218(8) 0.4298(5)
H3 H -0.2931 0.3709 0.3794
C4 C -0.2778(7) 0.3218(8) 0.5702(5)
H4 H -0.2931 0.3709 0.6206
N3 N 0.15031(19) -0.15031(19) 0.5000
C5 C 0.1782(8) -0.2222(7) 0.4298(5)
H5 H 0.1291 -0.2069 0.3794
F3 F 0.1742(7) 0.0000 0.7500
O2 O 0.1213(6) 0.1213(6) 0.7500
C6 C 0.1782(8) -0.2222(7) 0.5702(5)
H6 H 0.1291 -0.2069 0.6206
N4 N 0.34969(19) -0.34969(19) 0.5000
C7 C 0.2778(7) -0.3218(8) 0.4298(5)
H7 H 0.2931 -0.3709 0.3794
C8 C 0.2778(7) -0.3218(8) 0.5702(5)
H8 H 0.2931 -0.3709 0.6206
F4 F -0.0000 -0.1742(7) 0.7500
O3 O 0.1213(6) -0.1213(6) 0.7500
F5 F 0.0000 0.1742(7) 0.7500
O4 O -0.1213(6) 0.1213(6) 0.7500
F6 F -0.0000 -0.0000 0.86938(17)
Ni2 Ni 0.0000 0.0000 1.0000
Ni3 Ni -0.5000 0.5000 0.5000
Ni4 Ni 0.5000 -0.5000 0.5000
N5 N -0.15031(19) -0.15031(19) 0.5000
N6 N 0.15031(19) 0.15031(19) 0.5000
F7 F 0.0000 0.0000 0.36938(17)
loop_
_geom_bond_atom_site_label_1
_geom_bond_atom_site_label_2
_geom_bond_site_symmetry_1
_geom_bond_site_symmetry_2
Ni1 N1 1_555 1_555
N1 C1 1_555 1_555
C1 H1 1_555 1_555
F1 Ni1 1_555 1_555
Al1 F1 1_555 1_555
F2 Al1 1_555 1_555
O1 Al1 1_555 1_555
C2 N1 1_555 1_555
H2 C2 1_555 1_555
N2 C3 1_555 1_555
C3 C1 1_555 1_555
H3 C3 1_555 1_555
C4 C2 1_555 1_555
H4 C4 1_555 1_555
N3 Ni1 1_555 1_555
C5 N3 1_555 1_555
H5 C5 1_555 1_555
F3 Al1 1_555 1_555
O2 Al1 1_555 1_555
C6 N3 1_555 1_555
H6 C6 1_555 1_555
N4 C7 1_555 1_555
C7 C5 1_555 1_555
H7 C7 1_555 1_555
C8 C6 1_555 1_555
H8 C8 1_555 1_555
F4 Al1 1_555 1_555
O3 Al1 1_555 1_555
F5 Al1 1_555 1_555
O4 Al1 1_555 1_555
F6 Al1 1_555 1_555
Ni2 F6 1_555 1_555
Ni3 N2 1_555 1_555
Ni4 N4 1_555 1_555
N5 Ni1 1_555 1_555
N6 Ni1 1_555 1_555
F7 Ni1 1_555 1_555
N2 C4 1_555 1_555
N4 C8 1_555 1_555

#END
