
#######################################################################
#
#                 Cambridge Crystallographic Data Centre
#                                CCDC 
#
#######################################################################
#
# If this CIF has been generated from an entry in the Cambridge 
# Structural Database, then it will include bibliographic, chemical, 
# crystal, experimental, refinement or atomic coordinate data resulting 
# from the CCDC's data processing and validation procedures.
#
#######################################################################

data_WESZOK
_chemical_formula_moiety         
'(C24 H24 Ag3 N12 3+)n,n(B1 F4 1-),2n(C2 F6 N1 O4 S2 1-)'
_chemical_name_systematic        
'catena-(hexakis(\m~2~-pyrimidine)-tri-silver(i) tetrafluoroborate bis(bis(trifluoromethanesulfonyl)imide))'
_symmetry_cell_setting           orthorhombic
_symmetry_space_group_name_H-M   'P b c m'
_symmetry_Int_Tables_number      57
_space_group_name_Hall           '-P 2c 2b'
loop_
_symmetry_equiv_pos_site_id
_symmetry_equiv_pos_as_xyz
1 x,y,z
2 -x,-y,1/2+z
3 -x,1/2+y,1/2-z
4 x,1/2-y,-z
5 -x,-y,-z
6 x,y,1/2-z
7 x,1/2-y,1/2+z
8 -x,1/2+y,z
_cell_length_a                   6.328(3)
_cell_length_b                   31.404(14)
_cell_length_c                   24.166(11)
_cell_angle_alpha                90
_cell_angle_beta                 90
_cell_angle_gamma                90
_cell_volume                     4802.38
_exptl_crystal_colour            colorless
_exptl_crystal_description       needle
_cell_formula_units_Z            4
_exptl_crystal_recrystallization_method acetonitrile
loop_
_atom_site_label
_atom_site_type_symbol
_atom_site_fract_x
_atom_site_fract_y
_atom_site_fract_z
Ag1 Ag 1.19404(12) 0.39809(2) 0.61863(3)
Ag2 Ag 1.18346(17) 0.22718(3) 0.7500
N1 N 1.2678(11) 0.4304(2) 0.7015(3)
N2 N 1.5089(12) 0.4200(2) 0.5756(3)
N3 N 1.8805(12) 0.4178(3) 0.5743(4)
N4 N 1.1260(14) 0.3265(3) 0.6161(4)
N5 N 1.1085(14) 0.2629(2) 0.6689(4)
N6 N 0.8610(16) 0.1888(3) 0.7500
N7 N 0.4902(18) 0.1907(4) 0.7500
C1 C 1.3883(15) 0.4654(3) 0.7022(4)
H1 H 1.4297 0.4778 0.6680
C2 C 1.453(2) 0.4839(4) 0.7500
H2 H 1.5405 0.5085 0.7500
C3 C 1.214(2) 0.4149(5) 0.7500
H3 H 1.1275 0.3901 0.7500
C4 C 1.5120(17) 0.4388(4) 0.5263(4)
H4 H 1.3821 0.4471 0.5098
C5 C 1.6953(16) 0.4464(4) 0.4987(4)
H5 H 1.6960 0.4590 0.4629
C6 C 1.6956(15) 0.4111(3) 0.5976(4)
H6 H 1.6958 0.3988 0.6335
C7 C 1.8789(15) 0.4350(4) 0.5247(4)
H7 H 2.0096 0.4398 0.5064
C8 C 1.1743(17) 0.3021(3) 0.6589(5)
H8 H 1.2671 0.3142 0.6855
C9 C 0.997(2) 0.3091(4) 0.5792(5)
H9 H 0.9590 0.3252 0.5474
C10 C 0.916(2) 0.2690(4) 0.5847(5)
H10 H 0.8223 0.2572 0.5580
C11 C 0.977(2) 0.2467(4) 0.6306(4)
H11 H 0.9236 0.2187 0.6356
C12 C 0.855(2) 0.1463(4) 0.7500
H12 H 0.9835 0.1307 0.7500
C13 C 0.679(2) 0.2084(4) 0.7500
H13 H 0.6835 0.2387 0.7500
C14 C 0.671(2) 0.1254(4) 0.7500
H14 H 0.6680 0.0951 0.7500
C15 C 0.486(2) 0.1484(5) 0.7500
H15 H 0.3544 0.1340 0.7500
Ag3 Ag 1.19404(12) 0.39809(2) 0.88137(3)
Ag4 Ag 2.19404(12) 0.39809(2) 0.61863(3)
Ag5 Ag 0.19404(12) 0.39809(2) 0.61863(3)
Ag6 Ag 0.18346(17) 0.22718(3) 0.7500
N8 N 1.2678(11) 0.4304(2) 0.7985(3)
N9 N 0.5089(12) 0.4200(2) 0.5756(3)
N10 N 1.5089(12) 0.4200(2) 0.9244(3)
N11 N 0.8805(12) 0.4178(3) 0.5743(4)
N12 N 0.8805(12) 0.4178(3) 0.9257(4)
N13 N 1.1260(14) 0.3265(3) 0.8839(4)
N14 N 1.1085(14) 0.2629(2) 0.8311(4)
N15 N 1.4902(18) 0.1907(4) 0.7500
C16 C 1.3883(15) 0.4654(3) 0.7978(4)
H16 H 1.4297 0.4778 0.8320
C17 C 0.5120(17) 0.4388(4) 0.5263(4)
H17 H 0.3821 0.4471 0.5098
C18 C 0.6953(16) 0.4464(4) 0.4987(4)
H18 H 0.6960 0.4590 0.4629
C19 C 0.6956(15) 0.4111(3) 0.5976(4)
H19 H 0.6958 0.3988 0.6335
C20 C 0.8789(15) 0.4350(4) 0.5247(4)
H20 H 1.0096 0.4398 0.5064
C21 C 1.1743(17) 0.3021(3) 0.8411(5)
H21 H 1.2671 0.3142 0.8145
C22 C 0.997(2) 0.3091(4) 0.9208(5)
H22 H 0.9590 0.3252 0.9526
C23 C 0.916(2) 0.2690(4) 0.9153(5)
H23 H 0.8223 0.2572 0.9420
C24 C 0.977(2) 0.2467(4) 0.8694(4)
H24 H 0.9236 0.2187 0.8644
loop_
_geom_bond_atom_site_label_1
_geom_bond_atom_site_label_2
_geom_bond_site_symmetry_1
_geom_bond_site_symmetry_2
Ag1 N1 1_555 1_555
Ag2 N5 1_555 1_555
N1 C1 1_555 1_555
N2 Ag1 1_555 1_555
N3 C6 1_555 1_555
N4 Ag1 1_555 1_555
N5 C8 1_555 1_555
N6 Ag2 1_555 1_555
N7 C13 1_555 1_555
C1 H1 1_555 1_555
C2 C1 1_555 1_555
H2 C2 1_555 1_555
C3 N1 1_555 1_555
H3 C3 1_555 1_555
C4 N2 1_555 1_555
H4 C4 1_555 1_555
C5 C4 1_555 1_555
H5 C5 1_555 1_555
C6 N2 1_555 1_555
H6 C6 1_555 1_555
C7 N3 1_555 1_555
H7 C7 1_555 1_555
C8 N4 1_555 1_555
H8 C8 1_555 1_555
C9 N4 1_555 1_555
H9 C9 1_555 1_555
C10 C9 1_555 1_555
H10 C10 1_555 1_555
C11 N5 1_555 1_555
H11 C11 1_555 1_555
C12 N6 1_555 1_555
H12 C12 1_555 1_555
C13 N6 1_555 1_555
H13 C13 1_555 1_555
C14 C12 1_555 1_555
H14 C14 1_555 1_555
C15 N7 1_555 1_555
H15 C15 1_555 1_555
Ag3 N8 1_555 1_555
Ag4 N3 1_555 1_555
Ag5 N9 1_555 1_555
Ag6 N7 1_555 1_555
N8 C3 1_555 1_555
N9 C17 1_555 1_555
N10 Ag3 1_555 1_555
N11 Ag1 1_555 1_555
N12 Ag3 1_555 1_555
N13 Ag3 1_555 1_555
N14 Ag2 1_555 1_555
N15 Ag2 1_555 1_555
C16 C2 1_555 1_555
H16 C16 1_555 1_555
C17 H17 1_555 1_555
C18 C17 1_555 1_555
H18 C18 1_555 1_555
C19 N9 1_555 1_555
H19 C19 1_555 1_555
C20 N11 1_555 1_555
H20 C20 1_555 1_555
C21 N13 1_555 1_555
H21 C21 1_555 1_555
C22 N13 1_555 1_555
H22 C22 1_555 1_555
C23 C22 1_555 1_555
H23 C23 1_555 1_555
C24 N14 1_555 1_555
H24 C24 1_555 1_555
C5 C7 1_555 1_555
C10 C11 1_555 1_555
C14 C15 1_555 1_555
N8 C16 1_555 1_555
N11 C19 1_555 1_555
N14 C21 1_555 1_555
C18 C20 1_555 1_555
C23 C24 1_555 1_555

#END
