
#######################################################################
#
#                 Cambridge Crystallographic Data Centre
#                                CCDC 
#
#######################################################################
#
# If this CIF has been generated from an entry in the Cambridge 
# Structural Database, then it will include bibliographic, chemical, 
# crystal, experimental, refinement or atomic coordinate data resulting 
# from the CCDC's data processing and validation procedures.
#
#######################################################################

data_DAXNEY
_chemical_name_common            'AlFFIVE-1-Ni (KAUST-8) dehydrated'
_chemical_formula_moiety         '(C8 H8 Al1 F5 N4 Ni1)n'
_chemical_name_systematic        
catena-[bis(\m-pyrazine)-bis(\m-fluoro)-trifluoro-aluminium-nickel]
_symmetry_cell_setting           tetragonal
_symmetry_space_group_name_H-M   'P 4/m m m'
_symmetry_Int_Tables_number      123
_space_group_name_Hall           '-P 4 2'
loop_
_symmetry_equiv_pos_site_id
_symmetry_equiv_pos_as_xyz
1 x,y,z
2 -x,-y,z
3 -y,x,z
4 y,-x,z
5 -x,y,-z
6 x,-y,-z
7 y,x,-z
8 -y,-x,-z
9 -x,-y,-z
10 x,y,-z
11 y,-x,-z
12 -y,x,-z
13 x,-y,z
14 -x,y,z
15 -y,-x,z
16 y,x,z
_cell_length_a                   7.0419(6)
_cell_length_b                   7.0419(6)
_cell_length_c                   7.7049(8)
_cell_angle_alpha                90
_cell_angle_beta                 90
_cell_angle_gamma                90
_cell_volume                     382.073
_exptl_crystal_colour            'blue violet'
_exptl_crystal_description       prism
_cell_formula_units_Z            1
loop_
_atom_site_label
_atom_site_type_symbol
_atom_site_fract_x
_atom_site_fract_y
_atom_site_fract_z
Ni1 Ni 0.5000 0.5000 0.5000
F1 F 0.5000 0.5000 0.2397(3)
N1 N 0.1983(4) 0.5000 0.5000
C1 C 0.4551(7) 0.0975(5) 0.3596(4)
Al1 Al 0.5000 0.5000 1.0000
H1 H 0.4227 0.1614 0.2582
F2 F 0.3309(19) 0.6691(19) 1.0000
N2 N 0.5000 0.1983(4) 0.5000
F3 F 0.5000 0.5000 0.7603(3)
N3 N 0.8017(4) 0.5000 0.5000
N4 N 0.5000 0.8017(4) 0.5000
C2 C 0.5449(7) 0.0975(5) 0.6404(4)
C3 C 0.9025(5) 0.5449(7) 0.6404(4)
C4 C 0.9025(5) 0.4551(7) 0.3596(4)
C5 C 0.4551(7) -0.0975(5) 0.3596(4)
H2 H 0.5773 0.1614 0.7418
C6 C 0.5449(7) -0.0975(5) 0.6404(4)
F4 F 0.5000 0.5000 1.2397(3)
F5 F 0.6691(19) 0.3309(19) 1.0000
F6 F 0.6691(19) 0.6691(19) 1.0000
H3 H 0.8386 0.5773 0.7418
C7 C 1.0975(5) 0.5449(7) 0.6404(4)
C8 C 1.0975(5) 0.4551(7) 0.3596(4)
H4 H 0.8386 0.4227 0.2582
N5 N 0.5000 -0.1983(4) 0.5000
H5 H 0.4227 -0.1614 0.2582
H6 H 0.5773 -0.1614 0.7418
Ni2 Ni 0.5000 0.5000 1.5000
N6 N 1.1983(4) 0.5000 0.5000
H7 H 1.1614 0.5773 0.7418
H8 H 1.1614 0.4227 0.2582
Ni3 Ni 0.5000 -0.5000 0.5000
Ni4 Ni 1.5000 0.5000 0.5000
loop_
_geom_bond_atom_site_label_1
_geom_bond_atom_site_label_2
_geom_bond_site_symmetry_1
_geom_bond_site_symmetry_2
Ni1 F1 1_555 1_555
N1 Ni1 1_555 1_555
C1 H1 1_555 1_555
Al1 F2 1_555 1_555
N2 Ni1 1_555 1_555
F3 Ni1 1_555 1_555
N3 Ni1 1_555 1_555
N4 Ni1 1_555 1_555
C2 N2 1_555 1_555
C3 N3 1_555 1_555
C4 N3 1_555 1_555
C5 C1 1_555 1_555
H2 C2 1_555 1_555
C6 C2 1_555 1_555
F4 Al1 1_555 1_555
F5 Al1 1_555 1_555
F6 Al1 1_555 1_555
H3 C3 1_555 1_555
C7 C3 1_555 1_555
C8 C4 1_555 1_555
H4 C4 1_555 1_555
N5 C5 1_555 1_555
H5 C5 1_555 1_555
H6 C6 1_555 1_555
Ni2 F4 1_555 1_555
N6 C7 1_555 1_555
H7 C7 1_555 1_555
H8 C8 1_555 1_555
Ni3 N5 1_555 1_555
Ni4 N6 1_555 1_555
C1 N2 1_555 1_555
Al1 F3 1_555 1_555
C6 N5 1_555 1_555
C8 N6 1_555 1_555

#END
